@<TRIPOS>MOLECULE
PETase-TrCBM Model complex.pdb
77 76 1 0 0
SMALL
AMBER ff14SB


@<TRIPOS>ATOM
      1 O1         -7.0870   17.4000   -6.1750 os        1 UNK   -0.4416
      2 C12        -7.8750   18.4730   -6.7170 c3        1 UNK    0.1384
      3 C10        -7.4180   18.9650   -8.1220 c3        1 UNK   -0.0550
      4 C14        -8.6920   18.9970   -9.1100 c3        1 UNK    0.1384
      5 O3         -9.9150   18.6240   -8.2710 os        1 UNK   -0.4416
      6 C18       -11.0860   19.5210   -8.1650 c         1 UNK    0.6308
      7 O6        -12.1730   19.2200   -8.6720 o         1 UNK   -0.5213
      8 C21       -10.9200   20.8770   -7.3650 c3        1 UNK   -0.1404
      9 C24       -10.7280   20.7730   -5.7780 c3        1 UNK   -0.0754
     10 C27        -9.3900   21.5350   -5.3350 c3        1 UNK   -0.0811
     11 C30        -9.5750   22.4910   -4.0840 c3        1 UNK   -0.1077
     12 C33        -8.6430   22.0390   -2.8920 c3        1 UNK    0.1244
     13 O9         -7.3540   22.7110   -2.9380 oh        1 UNK   -0.6018
     14 H77        -7.1180   23.0720   -2.0320 ho        1 UNK    0.3993
     15 C11        -6.9590   20.4310   -7.9690 c3        1 UNK   -0.0754
     16 C15        -7.6220   21.3260   -9.0400 c3        1 UNK   -0.0971
     17 C13        -6.1380   17.9900   -8.4850 c3        1 UNK    0.1384
     18 O2         -6.2500   16.6880   -9.1950 os        1 UNK   -0.4416
     19 C17        -5.3780   16.7640  -10.3930 c         1 UNK    0.6308
     20 O5         -4.1670   16.5540  -10.2570 o         1 UNK   -0.5213
     21 C20        -5.9000   17.1430  -11.8180 c3        1 UNK   -0.1404
     22 C23        -5.2170   18.5000  -12.3390 c3        1 UNK   -0.0754
     23 C26        -5.9600   19.8140  -11.8360 c3        1 UNK   -0.0811
     24 C29        -5.7890   21.0100  -12.8630 c3        1 UNK   -0.1077
     25 C32        -4.5710   20.7750  -13.8300 c3        1 UNK    0.1244
     26 O8         -4.9770   20.9150  -15.2170 oh        1 UNK   -0.6018
     27 H76        -5.8370   21.4250  -15.2780 ho        1 UNK    0.3993
     28 C16        -6.7360   17.7150   -4.8540 c         1 UNK    0.6308
     29 O4         -5.6120   17.2920   -4.4150 o         1 UNK   -0.5213
     30 C19        -7.6400   18.4410   -3.8990 c3        1 UNK   -0.1404
     31 C22        -7.4840   17.8700   -2.4580 c3        1 UNK   -0.0754
     32 C25        -8.0850   18.8350   -1.3990 c3        1 UNK   -0.0811
     33 C28        -6.9510   19.4800   -0.5550 c3        1 UNK   -0.1077
     34 C31        -7.5150   19.9870    0.7980 c3        1 UNK    0.1244
     35 O7         -6.4900   20.6750    1.5340 oh        1 UNK   -0.6018
     36 H75        -5.8090   20.0230    1.8490 ho        1 UNK    0.3993
     37 HC2        -8.9071   18.1312   -6.7954 h1        1 UNK    0.0639
     38 HC3        -7.8390   19.3146   -6.0252 h1        1 UNK    0.0639
     39 HC4        -8.8158   19.9954   -9.5294 h1        1 UNK    0.0639
     40 HC5        -8.5574   18.2717   -9.9124 h1        1 UNK    0.0639
     41 HC6       -10.0468   21.3902   -7.7677 hc        1 UNK    0.0777
     42 HC7       -11.7963   21.4951   -7.5605 hc        1 UNK    0.0777
     43 HC8       -10.6571   19.7237   -5.4914 hc        1 UNK    0.0579
     44 HC9       -11.5846   21.2269   -5.2796 hc        1 UNK    0.0579
     45 HC10       -9.0432   22.1351   -6.1762 hc        1 UNK    0.0489
     46 HC11       -8.6277   20.7929   -5.0977 hc        1 UNK    0.0489
     47 HC12       -9.3180   23.5104   -4.3720 hc        1 UNK    0.0479
     48 HC13      -10.6149   22.4605   -3.7588 hc        1 UNK    0.0479
     49 HC14       -8.4835   20.9626   -2.9560 h1        1 UNK    0.0415
     50 HC15       -9.1336   22.2718   -1.9469 h1        1 UNK    0.0415
     51 HC16       -7.2381   20.7916   -6.9790 hc        1 UNK    0.0577
     52 HC17       -5.8757   20.4819   -8.0782 hc        1 UNK    0.0577
     53 HC18       -5.4679   18.5988   -9.0920 h1        1 UNK    0.0639
     54 HC19       -5.6188   17.7921   -7.5473 h1        1 UNK    0.0639
     55 HC20       -5.6625   16.3357  -12.5108 hc        1 UNK    0.0777
     56 HC21       -6.9811   17.2770  -11.7802 hc        1 UNK    0.0777
     57 HC22       -4.1873   18.5275  -11.9827 hc        1 UNK    0.0579
     58 HC23       -5.2117   18.4947  -13.4290 hc        1 UNK    0.0579
     59 HC24       -5.5413   20.1109  -10.8744 hc        1 UNK    0.0489
     60 HC25       -7.0213   19.5988  -11.7121 hc        1 UNK    0.0489
     61 HC26       -6.6991   21.0992  -13.4562 hc        1 UNK    0.0479
     62 HC27       -5.6317   21.9358  -12.3096 hc        1 UNK    0.0479
     63 HC28       -3.7941   21.5072  -13.6099 h1        1 UNK    0.0415
     64 HC29       -4.1747   19.7721  -13.6713 h1        1 UNK    0.0415
     65 HC30       -8.6739   18.3205   -4.2223 hc        1 UNK    0.0777
     66 HC31       -7.3846   19.5007   -3.8962 hc        1 UNK    0.0777
     67 HC32       -6.4245   17.7263   -2.2462 hc        1 UNK    0.0579
     68 HC33       -7.9946   16.9089   -2.3968 hc        1 UNK    0.0579
     69 HC34       -8.7507   18.2771   -0.7405 hc        1 UNK    0.0489
     70 HC35       -8.6498   19.6187   -1.9039 hc        1 UNK    0.0489
     71 HC36       -6.1754   18.7377   -0.3665 hc        1 UNK    0.0479
     72 HC37       -6.5231   20.3181   -1.1050 hc        1 UNK    0.0479
     73 HC38       -7.8692   19.1374    1.3818 h1        1 UNK    0.0415
     74 HC39       -8.3450   20.6684    0.6111 h1        1 UNK    0.0415
     75 HC1        -7.1349   22.3010   -9.0517 hc        1 UNK    0.0384
     76 HC40       -7.5198   20.8573  -10.0188 hc        1 UNK    0.0384
     77 HC41       -8.6791   21.4508   -8.8055 hc        1 UNK    0.0384
@<TRIPOS>BOND
     1    1    2 1
     2    1   28 1
     3    2    3 1
     4    3    4 1
     5    3   15 1
     6    3   17 1
     7    4    5 1
     8    5    6 1
     9    6    7 2
    10    6    8 1
    11    8    9 1
    12    9   10 1
    13   10   11 1
    14   11   12 1
    15   12   13 1
    16   13   14 1
    17   15   16 1
    18   17   18 1
    19   18   19 1
    20   19   20 2
    21   19   21 1
    22   21   22 1
    23   22   23 1
    24   23   24 1
    25   24   25 1
    26   25   26 1
    27   26   27 1
    28   28   29 2
    29   28   30 1
    30   30   31 1
    31   31   32 1
    32   32   33 1
    33   33   34 1
    34   34   35 1
    35   35   36 1
    36   37    2 1
    37   38    2 1
    38   39    4 1
    39   40    4 1
    40   41    8 1
    41   42    8 1
    42   43    9 1
    43   44    9 1
    44   45   10 1
    45   46   10 1
    46   47   11 1
    47   48   11 1
    48   49   12 1
    49   50   12 1
    50   51   15 1
    51   52   15 1
    52   53   17 1
    53   54   17 1
    54   55   21 1
    55   56   21 1
    56   57   22 1
    57   58   22 1
    58   59   23 1
    59   60   23 1
    60   61   24 1
    61   62   24 1
    62   63   25 1
    63   64   25 1
    64   65   30 1
    65   66   30 1
    66   67   31 1
    67   68   31 1
    68   69   32 1
    69   70   32 1
    70   71   33 1
    71   72   33 1
    72   73   34 1
    73   74   34 1
    74   75   16 1
    75   76   16 1
    76   77   16 1
@<TRIPOS>SUBSTRUCTURE
     1 UNK     1 RESIDUE           4 A     UNK     0 ROOT
