@<TRIPOS>MOLECULE
PETase-CBM40 complex.pdb
77 76 1 0 0
SMALL
AMBER ff14SB


@<TRIPOS>ATOM
      1 O1          1.6100   33.2070   -7.5280 os        1 UNK   -0.4426
      2 C12         1.7480   32.2990   -6.4210 c3        1 UNK    0.1344
      3 C10         0.8370   32.6240   -5.2010 c3        1 UNK   -0.0660
      4 C14         1.3740   33.9650   -4.4840 c3        1 UNK    0.1344
      5 O3          1.4670   33.6620   -2.9880 os        1 UNK   -0.4426
      6 C18         0.4240   34.1070   -2.0400 c         1 UNK    0.6358
      7 O6          0.3350   35.2890   -1.6910 o         1 UNK   -0.5087
      8 C21        -0.5990   33.0280   -1.4920 c3        1 UNK   -0.1524
      9 C24        -2.1540   33.4120   -1.5190 c3        1 UNK   -0.0764
     10 C27        -2.7400   33.4300   -0.0280 c3        1 UNK   -0.0791
     11 C30        -1.6500   33.7010    1.0920 c3        1 UNK   -0.1077
     12 C33        -1.8240   32.6960    2.2980 c3        1 UNK    0.1297
     13 O9         -0.9240   33.0160    3.3930 oh        1 UNK   -0.6058
     14 H77        -0.5070   33.9170    3.2490 ho        1 UNK    0.4067
     15 C11        -0.5650   32.9660   -5.7520 c3        1 UNK   -0.0644
     16 C15        -0.9270   34.4370   -5.4500 c3        1 UNK   -0.1081
     17 C13         0.7980   31.2130   -4.3490 c3        1 UNK    0.1344
     18 O2          0.7170   29.8630   -4.9670 os        1 UNK   -0.4426
     19 C17         0.3910   28.9020   -3.8840 c         1 UNK    0.6358
     20 O5          0.4440   27.6910   -4.1320 o         1 UNK   -0.5087
     21 C20        -0.0660   29.3370   -2.4530 c3        1 UNK   -0.1524
     22 C23        -1.6580   29.5290   -2.3890 c3        1 UNK   -0.0764
     23 C26        -2.3480   28.7080   -1.2130 c3        1 UNK   -0.0791
     24 C29        -2.9320   29.6690   -0.0960 c3        1 UNK   -0.1077
     25 C32        -4.5020   29.7450   -0.1580 c3        1 UNK    0.1297
     26 O8         -4.9530   30.0240   -1.5110 oh        1 UNK   -0.6058
     27 H76        -5.8700   29.6480   -1.6560 ho        1 UNK    0.4067
     28 C16         2.8870   33.5650   -7.9840 c         1 UNK    0.6358
     29 O4          3.1340   34.8070   -8.1610 o         1 UNK   -0.5087
     30 C19         3.9490   32.5720   -8.3620 c3        1 UNK   -0.1524
     31 C22         3.5770   31.8550   -9.6940 c3        1 UNK   -0.0764
     32 C25         3.4120   30.3240   -9.4860 c3        1 UNK   -0.0791
     33 C28         4.1150   29.8800   -8.1730 c3        1 UNK   -0.1077
     34 C31         3.1750   28.9640   -7.3470 c3        1 UNK    0.1297
     35 O7          1.8040   29.2390   -7.6750 oh        1 UNK   -0.6058
     36 H75         1.7460   29.5980   -8.6000 ho        1 UNK    0.4067
     37 HC2         2.7854   32.3246   -6.0873 h1        1 UNK    0.0640
     38 HC3         1.5189   31.2912   -6.7673 h1        1 UNK    0.0640
     39 HC4         2.3564   34.2309   -4.8742 h1        1 UNK    0.0640
     40 HC5         0.6735   34.7826   -4.6541 h1        1 UNK    0.0640
     41 HC6        -0.3311   32.8189   -0.4563 hc        1 UNK    0.0769
     42 HC7        -0.4662   32.1121   -2.0678 hc        1 UNK    0.0769
     43 HC8        -2.2742   34.3989   -1.9659 hc        1 UNK    0.0605
     44 HC9        -2.6979   32.6773   -2.1127 hc        1 UNK    0.0605
     45 HC10       -3.4959   34.2129    0.0333 hc        1 UNK    0.0447
     46 HC11       -3.2150   32.4696    0.1721 hc        1 UNK    0.0447
     47 HC12       -0.6565   33.5744    0.6618 hc        1 UNK    0.0495
     48 HC13       -1.7561   34.7225    1.4572 hc        1 UNK    0.0495
     49 HC14       -1.6122   31.6851    1.9497 h1        1 UNK    0.0375
     50 HC15       -2.8525   32.7422    2.6559 h1        1 UNK    0.0375
     51 HC16       -1.3020   32.3131   -5.2844 hc        1 UNK    0.0462
     52 HC17       -0.5763   32.8069   -6.8303 hc        1 UNK    0.0462
     53 HC18        1.7075   31.2072   -3.7483 h1        1 UNK    0.0640
     54 HC19       -0.0372   31.2899   -3.6528 h1        1 UNK    0.0640
     55 HC20        0.2292   28.5703   -1.7366 hc        1 UNK    0.0769
     56 HC21        0.4193   30.2774   -2.1920 hc        1 UNK    0.0769
     57 HC22       -2.0839   29.1989   -3.3365 hc        1 UNK    0.0605
     58 HC23       -1.8789   30.5879   -2.2546 hc        1 UNK    0.0605
     59 HC24       -3.1612   28.1121   -1.6274 hc        1 UNK    0.0447
     60 HC25       -1.6116   28.0427   -0.7622 hc        1 UNK    0.0447
     61 HC26       -2.5239   30.6691   -0.2418 hc        1 UNK    0.0495
     62 HC27       -2.6311   29.3004    0.8847 hc        1 UNK    0.0495
     63 HC28       -4.8475   30.5388    0.5043 h1        1 UNK    0.0375
     64 HC29       -4.9210   28.7943    0.1715 h1        1 UNK    0.0375
     65 HC30        4.0439   31.8296   -7.5696 hc        1 UNK    0.0769
     66 HC31        4.8997   33.0907   -8.4854 hc        1 UNK    0.0769
     67 HC32        2.6388   32.2653  -10.0676 hc        1 UNK    0.0605
     68 HC33        4.3629   32.0336  -10.4279 hc        1 UNK    0.0605
     69 HC34        3.8583   29.7964  -10.3290 hc        1 UNK    0.0447
     70 HC35        2.3513   30.0798   -9.4279 hc        1 UNK    0.0447
     71 HC36        5.0255   29.3335   -8.4190 hc        1 UNK    0.0495
     72 HC37        4.3702   30.7609   -7.5840 hc        1 UNK    0.0495
     73 HC38        3.3975   27.9213   -7.5736 h1        1 UNK    0.0375
     74 HC39        3.3358   29.1453   -6.2843 h1        1 UNK    0.0375
     75 HC1        -1.9317   34.6471   -5.8167 hc        1 UNK    0.0484
     76 HC40       -0.8905   34.6063   -4.3738 hc        1 UNK    0.0484
     77 HC41       -0.2141   35.0958   -5.9458 hc        1 UNK    0.0484
@<TRIPOS>BOND
     1    1    2 1
     2    1   28 1
     3    2    3 1
     4    3    4 1
     5    3   15 1
     6    3   17 1
     7    4    5 1
     8    5    6 1
     9    6    7 2
    10    6    8 1
    11    8    9 1
    12    9   10 1
    13   10   11 1
    14   11   12 1
    15   12   13 1
    16   13   14 1
    17   15   16 1
    18   17   18 1
    19   18   19 1
    20   19   20 2
    21   19   21 1
    22   21   22 1
    23   22   23 1
    24   23   24 1
    25   24   25 1
    26   25   26 1
    27   26   27 1
    28   28   29 2
    29   28   30 1
    30   30   31 1
    31   31   32 1
    32   32   33 1
    33   33   34 1
    34   34   35 1
    35   35   36 1
    36   37    2 1
    37   38    2 1
    38   39    4 1
    39   40    4 1
    40   41    8 1
    41   42    8 1
    42   43    9 1
    43   44    9 1
    44   45   10 1
    45   46   10 1
    46   47   11 1
    47   48   11 1
    48   49   12 1
    49   50   12 1
    50   51   15 1
    51   52   15 1
    52   53   17 1
    53   54   17 1
    54   55   21 1
    55   56   21 1
    56   57   22 1
    57   58   22 1
    58   59   23 1
    59   60   23 1
    60   61   24 1
    61   62   24 1
    62   63   25 1
    63   64   25 1
    64   65   30 1
    65   66   30 1
    66   67   31 1
    67   68   31 1
    68   69   32 1
    69   70   32 1
    70   71   33 1
    71   72   33 1
    72   73   34 1
    73   74   34 1
    74   75   16 1
    75   76   16 1
    76   77   16 1
@<TRIPOS>SUBSTRUCTURE
     1 UNK     1 RESIDUE           4 A     UNK     0 ROOT
