@<TRIPOS>MOLECULE
PETase-CBM25 complex.pdb
77 76 1 0 0
SMALL
AMBER ff14SB


@<TRIPOS>ATOM
      1 O1         -1.4880   15.3680   18.4270 os        1 UNK   -0.4396
      2 C12        -0.9500   15.7040   19.7170 c3        1 UNK    0.1321
      3 C10        -1.8560   16.6400   20.5710 c3        1 UNK   -0.0680
      4 C14        -2.9040   17.3890   19.6020 c3        1 UNK    0.1321
      5 O3         -3.1150   18.7910   20.1760 os        1 UNK   -0.4396
      6 C18        -4.1810   19.6830   19.6700 c         1 UNK    0.6334
      7 O6         -5.1520   19.9850   20.3720 o         1 UNK   -0.5140
      8 C21        -4.0370   20.2640   18.2030 c3        1 UNK   -0.1521
      9 C24        -5.2670   20.0370   17.2020 c3        1 UNK   -0.0741
     10 C27        -5.3710   18.4880   16.8040 c3        1 UNK   -0.0844
     11 C30        -4.4600   18.0750   15.5740 c3        1 UNK   -0.0824
     12 C33        -3.4480   16.9330   15.9850 c3        1 UNK    0.1314
     13 O9         -4.1300   15.8240   16.6320 oh        1 UNK   -0.6118
     14 H77        -3.4690   15.1160   16.8950 ho        1 UNK    0.4103
     15 C11        -2.7000   15.7400   21.5000 c3        1 UNK   -0.0734
     16 C15        -2.6620   16.2650   22.9520 c3        1 UNK   -0.0871
     17 C13        -0.7840   17.5350   21.4480 c3        1 UNK    0.1321
     18 O2          0.6800   17.2760   21.5000 os        1 UNK   -0.4396
     19 C17         1.0050   16.8660   22.8890 c         1 UNK    0.6334
     20 O5          1.4450   17.7190   23.6690 o         1 UNK   -0.5140
     21 C20         0.8680   15.3980   23.4100 c3        1 UNK   -0.1521
     22 C23         1.8570   14.4110   22.6200 c3        1 UNK   -0.0741
     23 C26         3.1180   13.9580   23.4800 c3        1 UNK   -0.0844
     24 C29         4.4670   14.5480   22.8920 c3        1 UNK   -0.0824
     25 C32         4.5910   16.0930   23.1600 c3        1 UNK    0.1314
     26 O8          5.4200   16.7280   22.1500 oh        1 UNK   -0.6118
     27 H76         6.0400   17.3900   22.5750 ho        1 UNK    0.4103
     28 C16        -1.7480   13.9900   18.3880 c         1 UNK    0.6334
     29 O4         -2.5060   13.5490   17.4570 o         1 UNK   -0.5140
     30 C19        -1.2630   13.0180   19.4240 c3        1 UNK   -0.1521
     31 C22        -0.9300   11.6440   18.7710 c3        1 UNK   -0.0741
     32 C25        -0.2280   10.6930   19.7790 c3        1 UNK   -0.0844
     33 C28         0.0880   11.4460   21.1010 c3        1 UNK   -0.0824
     34 C31         1.2990   10.7920   21.8130 c3        1 UNK    0.1314
     35 O7          2.4490   10.8110   20.9520 oh        1 UNK   -0.6118
     36 H75         3.2430   10.4730   21.4440 ho        1 UNK    0.4103
     37 HC2        -0.7963   14.7792   20.2730 h1        1 UNK    0.0679
     38 HC3         0.0157   16.1892   19.5754 h1        1 UNK    0.0679
     39 HC4        -3.8491   16.8464   19.5812 h1        1 UNK    0.0679
     40 HC5        -2.4937   17.4584   18.5946 h1        1 UNK    0.0679
     41 HC6        -3.1582   19.8027   17.7525 hc        1 UNK    0.0770
     42 HC7        -3.8555   21.3361   18.2793 hc        1 UNK    0.0770
     43 HC8        -5.1137   20.6315   16.3013 hc        1 UNK    0.0554
     44 HC9        -6.1915   20.3485   17.6882 hc        1 UNK    0.0554
     45 HC10       -5.0727   17.8920   17.6665 hc        1 UNK    0.0534
     46 HC11       -6.4088   18.2583   16.5627 hc        1 UNK    0.0534
     47 HC12       -3.8982   18.9461   15.2370 hc        1 UNK    0.0522
     48 HC13       -5.0931   17.7190   14.7613 hc        1 UNK    0.0522
     49 HC14       -2.9458   16.5660   15.0899 h1        1 UNK    0.0217
     50 HC15       -2.7049   17.3433   16.6688 h1        1 UNK    0.0217
     51 HC16       -3.7321   15.7324   21.1494 hc        1 UNK    0.0472
     52 HC17       -2.3040   14.7248   21.4742 hc        1 UNK    0.0472
     53 HC18       -1.1292   17.4782   22.4803 h1        1 UNK    0.0679
     54 HC19       -0.9082   18.5709   21.1323 h1        1 UNK    0.0679
     55 HC20       -0.1592   15.0633   23.2656 hc        1 UNK    0.0770
     56 HC21        1.1079   15.3708   24.4729 hc        1 UNK    0.0770
     57 HC22        2.2142   14.9226   21.7263 hc        1 UNK    0.0554
     58 HC23        1.3005   13.5237   22.3181 hc        1 UNK    0.0554
     59 HC24        2.9937   14.3117   24.5035 hc        1 UNK    0.0534
     60 HC25        3.1757   12.8695   23.4830 hc        1 UNK    0.0534
     61 HC26        4.4898   14.3731   21.8164 hc        1 UNK    0.0522
     62 HC27        5.3114   14.0368   23.3545 hc        1 UNK    0.0522
     63 HC28        3.5971   16.5399   23.1387 h1        1 UNK    0.0217
     64 HC29        5.0358   16.2527   24.1422 h1        1 UNK    0.0217
     65 HC30       -2.0396   12.8786   20.1760 hc        1 UNK    0.0770
     66 HC31       -0.3675   13.4167   19.9007 hc        1 UNK    0.0770
     67 HC32       -0.2702   11.8070   17.9189 hc        1 UNK    0.0554
     68 HC33       -1.8533   11.1795   18.4247 hc        1 UNK    0.0554
     69 HC34        0.7017   10.3288   19.3418 hc        1 UNK    0.0534
     70 HC35       -0.8818    9.8475   19.9927 hc        1 UNK    0.0534
     71 HC36        0.3219   12.4865   20.8755 hc        1 UNK    0.0522
     72 HC37       -0.7818   11.4052   21.7567 hc        1 UNK    0.0522
     73 HC38        1.0545    9.7600   22.0646 h1        1 UNK    0.0217
     74 HC39        1.5222   11.3435   22.7263 h1        1 UNK    0.0217
     75 HC1        -3.4361   15.7699   23.5383 hc        1 UNK    0.0414
     76 HC40       -2.8374   17.3408   22.9538 hc        1 UNK    0.0414
     77 HC41       -1.6856   16.0553   23.3887 hc        1 UNK    0.0414
@<TRIPOS>BOND
     1    1    2 1
     2    1   28 1
     3    2    3 1
     4    3    4 1
     5    3   15 1
     6    3   17 1
     7    4    5 1
     8    5    6 1
     9    6    7 2
    10    6    8 1
    11    8    9 1
    12    9   10 1
    13   10   11 1
    14   11   12 1
    15   12   13 1
    16   13   14 1
    17   15   16 1
    18   17   18 1
    19   18   19 1
    20   19   20 2
    21   19   21 1
    22   21   22 1
    23   22   23 1
    24   23   24 1
    25   24   25 1
    26   25   26 1
    27   26   27 1
    28   28   29 2
    29   28   30 1
    30   30   31 1
    31   31   32 1
    32   32   33 1
    33   33   34 1
    34   34   35 1
    35   35   36 1
    36   37    2 1
    37   38    2 1
    38   39    4 1
    39   40    4 1
    40   41    8 1
    41   42    8 1
    42   43    9 1
    43   44    9 1
    44   45   10 1
    45   46   10 1
    46   47   11 1
    47   48   11 1
    48   49   12 1
    49   50   12 1
    50   51   15 1
    51   52   15 1
    52   53   17 1
    53   54   17 1
    54   55   21 1
    55   56   21 1
    56   57   22 1
    57   58   22 1
    58   59   23 1
    59   60   23 1
    60   61   24 1
    61   62   24 1
    62   63   25 1
    63   64   25 1
    64   65   30 1
    65   66   30 1
    66   67   31 1
    67   68   31 1
    68   69   32 1
    69   70   32 1
    70   71   33 1
    71   72   33 1
    72   73   34 1
    73   74   34 1
    74   75   16 1
    75   76   16 1
    76   77   16 1
@<TRIPOS>SUBSTRUCTURE
     1 UNK     1 RESIDUE           4 A     UNK     0 ROOT
