@<TRIPOS>MOLECULE
PETase_BlCBM5. Complex with substrate.pdb
77 76 1 0 0
SMALL
AMBER ff14SB


@<TRIPOS>ATOM
      1 O1        -20.9800   -1.4830    9.8140 os        1 UNK   -0.4392
      2 C12       -22.3760   -1.5710   10.1470 c3        1 UNK    0.1334
      3 C10       -23.0140   -0.2300   10.6140 c3        1 UNK   -0.0870
      4 C14       -22.1050    0.4090   11.7830 c3        1 UNK    0.1334
      5 O3        -21.2970    1.5410   11.1480 os        1 UNK   -0.4392
      6 C18       -19.8260    1.6190   11.2900 c         1 UNK    0.6418
      7 O6        -19.1070    0.6420   11.0570 o         1 UNK   -0.5337
      8 C21       -19.1890    3.0000   11.7340 c3        1 UNK   -0.1417
      9 C24       -20.1980    4.1670   12.1640 c3        1 UNK   -0.0774
     10 C27       -20.7410    3.9020   13.6490 c3        1 UNK   -0.0837
     11 C30       -21.7390    5.0150   14.1790 c3        1 UNK   -0.1097
     12 C33       -23.1720    4.4040   14.4400 c3        1 UNK    0.1304
     13 O9        -23.2810    3.0540   13.9100 oh        1 UNK   -0.6021
     14 H77       -24.1500    2.9420   13.4220 ho        1 UNK    0.4043
     15 C11       -22.9370    0.7540    9.4270 c3        1 UNK   -0.0694
     16 C15       -24.2450    1.5690    9.3060 c3        1 UNK   -0.1051
     17 C13       -24.5810   -0.6290   10.9360 c3        1 UNK    0.1334
     18 O2        -25.3900   -1.5750   10.1230 os        1 UNK   -0.4392
     19 C17       -25.6340   -2.7770   10.9590 c         1 UNK    0.6418
     20 O5        -26.3370   -2.6610   11.9690 o         1 UNK   -0.5337
     21 C20       -25.0090   -4.1790   10.6580 c3        1 UNK   -0.1417
     22 C23       -25.4120   -4.6870    9.1900 c3        1 UNK   -0.0774
     23 C26       -24.3730   -4.2530    8.0640 c3        1 UNK   -0.0837
     24 C29       -24.9090   -4.5970    6.6130 c3        1 UNK   -0.1097
     25 C32       -23.8700   -5.4490    5.7960 c3        1 UNK    0.1304
     26 O8        -23.9500   -5.1420    4.3780 oh        1 UNK   -0.6021
     27 H76       -23.0570   -5.2700    3.9440 ho        1 UNK    0.4043
     28 C16       -20.4210   -2.7690    9.8550 c         1 UNK    0.6418
     29 O4        -19.1460   -2.8690    9.8490 o         1 UNK   -0.5337
     30 C19       -21.2290   -4.0340    9.8140 c3        1 UNK   -0.1417
     31 C22       -20.5440   -5.0910    8.8980 c3        1 UNK   -0.0774
     32 C25       -21.3870   -6.3930    8.8080 c3        1 UNK   -0.0837
     33 C28       -22.2020   -6.5980   10.1150 c3        1 UNK   -0.1097
     34 C31       -21.8360   -7.9570   10.7660 c3        1 UNK    0.1304
     35 O7        -20.9200   -8.6770    9.9240 oh        1 UNK   -0.6021
     36 H75       -20.3920   -8.0360    9.3780 ho        1 UNK    0.4043
     37 HC2       -22.9153   -1.9154    9.2646 h1        1 UNK    0.0665
     38 HC3       -22.4986   -2.3091   10.9396 h1        1 UNK    0.0665
     39 HC4       -21.4342   -0.3468   12.1916 h1        1 UNK    0.0665
     40 HC5       -22.7421    0.8060   12.5733 h1        1 UNK    0.0665
     41 HC6       -18.5958    3.3711   10.8983 hc        1 UNK    0.0827
     42 HC7       -18.5154    2.8095   12.5695 hc        1 UNK    0.0827
     43 HC8       -19.6764    5.1237   12.1358 hc        1 UNK    0.0599
     44 HC9       -21.0385    4.1925   11.4705 hc        1 UNK    0.0599
     45 HC10      -19.8861    3.8589   14.3238 hc        1 UNK    0.0422
     46 HC11      -21.2502    2.9384   13.6681 hc        1 UNK    0.0422
     47 HC12      -21.3516    5.4281   15.1103 hc        1 UNK    0.0549
     48 HC13      -21.8169    5.8104   13.4378 hc        1 UNK    0.0549
     49 HC14      -23.3556    4.3785   15.5141 h1        1 UNK    0.0350
     50 HC15      -23.9219    5.0361   13.9643 h1        1 UNK    0.0350
     51 HC16      -22.7794    0.1921    8.5064 hc        1 UNK    0.0527
     52 HC17      -22.1008    1.4365    9.5793 hc        1 UNK    0.0527
     53 HC18      -25.1315    0.3117   10.9261 h1        1 UNK    0.0665
     54 HC19      -24.6065   -0.9963   11.9619 h1        1 UNK    0.0665
     55 HC20      -23.9234   -4.1065   10.7241 hc        1 UNK    0.0827
     56 HC21      -25.3661   -4.8968   11.3965 hc        1 UNK    0.0827
     57 HC22      -26.3883   -4.2734    8.9372 hc        1 UNK    0.0599
     58 HC23      -25.4835   -5.7746    9.2018 hc        1 UNK    0.0599
     59 HC24      -24.2046   -3.1783    8.1333 hc        1 UNK    0.0422
     60 HC25      -23.4297   -4.7736    8.2289 hc        1 UNK    0.0422
     61 HC26      -25.8360   -5.1630    6.7040 hc        1 UNK    0.0549
     62 HC27      -25.1089   -3.6690    6.0774 hc        1 UNK    0.0549
     63 HC28      -24.0814   -6.5079    5.9444 h1        1 UNK    0.0350
     64 HC29      -22.8644   -5.2297    6.1548 h1        1 UNK    0.0350
     65 HC30      -22.2225   -3.8121    9.4243 hc        1 UNK    0.0827
     66 HC31      -21.3195   -4.4364   10.8230 hc        1 UNK    0.0827
     67 HC32      -20.4295   -4.6728    7.8980 hc        1 UNK    0.0599
     68 HC33      -19.5597   -5.3293    9.3010 hc        1 UNK    0.0599
     69 HC34      -20.7209   -7.2434    8.6625 hc        1 UNK    0.0422
     70 HC35      -22.0718   -6.3220    7.9629 hc        1 UNK    0.0422
     71 HC36      -23.2665   -6.5859    9.8811 hc        1 UNK    0.0549
     72 HC37      -21.9761   -5.7910   10.8120 hc        1 UNK    0.0549
     73 HC38      -21.3704   -7.7786   11.7353 h1        1 UNK    0.0350
     74 HC39      -22.7417   -8.5478   10.9032 h1        1 UNK    0.0350
     75 HC1       -24.0793    2.4288    8.6568 hc        1 UNK    0.0454
     76 HC40      -25.0272    0.9393    8.8820 hc        1 UNK    0.0454
     77 HC41      -24.5513    1.9133   10.2938 hc        1 UNK    0.0454
@<TRIPOS>BOND
     1    1    2 1
     2    1   28 1
     3    2    3 1
     4    3    4 1
     5    3   15 1
     6    3   17 1
     7    4    5 1
     8    5    6 1
     9    6    7 2
    10    6    8 1
    11    8    9 1
    12    9   10 1
    13   10   11 1
    14   11   12 1
    15   12   13 1
    16   13   14 1
    17   15   16 1
    18   17   18 1
    19   18   19 1
    20   19   20 2
    21   19   21 1
    22   21   22 1
    23   22   23 1
    24   23   24 1
    25   24   25 1
    26   25   26 1
    27   26   27 1
    28   28   29 2
    29   28   30 1
    30   30   31 1
    31   31   32 1
    32   32   33 1
    33   33   34 1
    34   34   35 1
    35   35   36 1
    36   37    2 1
    37   38    2 1
    38   39    4 1
    39   40    4 1
    40   41    8 1
    41   42    8 1
    42   43    9 1
    43   44    9 1
    44   45   10 1
    45   46   10 1
    46   47   11 1
    47   48   11 1
    48   49   12 1
    49   50   12 1
    50   51   15 1
    51   52   15 1
    52   53   17 1
    53   54   17 1
    54   55   21 1
    55   56   21 1
    56   57   22 1
    57   58   22 1
    58   59   23 1
    59   60   23 1
    60   61   24 1
    61   62   24 1
    62   63   25 1
    63   64   25 1
    64   65   30 1
    65   66   30 1
    66   67   31 1
    67   68   31 1
    68   69   32 1
    69   70   32 1
    70   71   33 1
    71   72   33 1
    72   73   34 1
    73   74   34 1
    74   75   16 1
    75   76   16 1
    76   77   16 1
@<TRIPOS>SUBSTRUCTURE
     1 UNK     1 RESIDUE           4 A     UNK     0 ROOT
