@<TRIPOS>MOLECULE
Subst.pdb
77 76 1 0 0
SMALL
AMBER ff14SB


@<TRIPOS>ATOM
      1 O1         -0.8090  -23.9350   -7.6720 os        1 UNK   -0.4279
      2 C12         0.3200  -24.8030   -7.8690 c3        1 UNK    0.1371
      3 C10        -0.0400  -26.2220   -8.4000 c3        1 UNK   -0.0450
      4 C14        -1.6040  -26.2570   -8.7920 c3        1 UNK    0.1371
      5 O3         -1.8810  -27.6380   -9.3900 os        1 UNK   -0.4279
      6 C18        -2.9010  -27.8380  -10.4410 c         1 UNK    0.6318
      7 O6         -2.5810  -28.0490  -11.6160 o         1 UNK   -0.5150
      8 C21        -4.4280  -27.7930  -10.0200 c3        1 UNK   -0.1544
      9 C24        -5.1540  -29.1950   -9.7510 c3        1 UNK   -0.0781
     10 C27        -5.1390  -29.5290   -8.1830 c3        1 UNK   -0.0761
     11 C30        -4.3480  -30.8530   -7.8130 c3        1 UNK   -0.1087
     12 C33        -3.0820  -30.5210   -6.9300 c3        1 UNK    0.1287
     13 O9         -2.7660  -29.1020   -6.9620 oh        1 UNK   -0.6218
     14 H77        -1.8090  -28.9530   -6.6970 ho        1 UNK    0.4170
     15 C11         0.7360  -26.4290   -9.7190 c3        1 UNK   -0.0644
     16 C15         0.4440  -25.2810  -10.7120 c3        1 UNK   -0.0891
     17 C13         0.5230  -27.2380   -7.2300 c3        1 UNK    0.1371
     18 O2         -0.1240  -28.5240   -6.8540 os        1 UNK   -0.4279
     19 C17         0.9610  -29.5010   -6.5880 c         1 UNK    0.6318
     20 O5          0.7880  -30.6810   -6.9150 o         1 UNK   -0.5150
     21 C20         2.3010  -29.1290   -5.8710 c3        1 UNK   -0.1544
     22 C23         2.0840  -28.9820   -4.2870 c3        1 UNK   -0.0781
     23 C26         1.9550  -27.4710   -3.8050 c3        1 UNK   -0.0761
     24 C29         0.4450  -27.0740   -3.5300 c3        1 UNK   -0.1087
     25 C32        -0.4520  -28.3410   -3.2780 c3        1 UNK    0.1287
     26 O8         -1.5080  -28.4310   -4.2720 oh        1 UNK   -0.6218
     27 H76        -1.8680  -27.5200   -4.4800 ho        1 UNK    0.4170
     28 C16        -0.3710  -22.6030   -7.7130 c         1 UNK    0.6318
     29 O4         -0.1680  -22.0040   -6.6020 o         1 UNK   -0.5150
     30 C19        -0.2130  -21.8130   -8.9800 c3        1 UNK   -0.1544
     31 C22        -1.5460  -21.0930   -9.3450 c3        1 UNK   -0.0781
     32 C25        -1.3330  -20.0450  -10.4710 c3        1 UNK   -0.0761
     33 C28        -2.2380  -20.3730  -11.6910 c3        1 UNK   -0.1087
     34 C31        -1.3990  -21.0280  -12.8180 c3        1 UNK    0.1287
     35 O7         -0.2380  -20.2300  -13.0980 oh        1 UNK   -0.6218
     36 H75         0.5360  -20.8210  -13.2980 ho        1 UNK    0.4170
     37 HC2         0.8321  -24.9172   -6.9136 h1        1 UNK    0.0519
     38 HC3         1.0028  -24.3305   -8.5751 h1        1 UNK    0.0519
     39 HC4        -1.8243  -25.4804   -9.5244 h1        1 UNK    0.0519
     40 HC5        -2.2134  -26.1097   -7.9004 h1        1 UNK    0.0519
     41 HC6        -4.4985  -27.2062   -9.1042 hc        1 UNK    0.0807
     42 HC7        -4.9797  -27.2699  -10.8011 hc        1 UNK    0.0807
     43 HC8        -4.6298  -29.9824  -10.2926 hc        1 UNK    0.0594
     44 HC9        -6.1854  -29.1411  -10.0995 hc        1 UNK    0.0594
     45 HC10       -6.1698  -29.6403   -7.8465 hc        1 UNK    0.0454
     46 HC11       -4.6865  -28.6917   -7.6517 hc        1 UNK    0.0454
     47 HC12       -5.0071  -31.5192   -7.2564 hc        1 UNK    0.0515
     48 HC13       -4.0272  -31.3481   -8.7296 hc        1 UNK    0.0515
     49 HC14       -3.2819  -30.8159   -5.8999 h1        1 UNK    0.0409
     50 HC15       -2.2278  -31.0856   -7.3038 h1        1 UNK    0.0409
     51 HC16        1.8045  -26.4535   -9.5050 hc        1 UNK    0.0552
     52 HC17        0.4372  -27.3767  -10.1670 hc        1 UNK    0.0552
     53 HC18        1.5388  -27.4965   -7.5291 h1        1 UNK    0.0519
     54 HC19        0.6052  -26.6493   -6.3163 h1        1 UNK    0.0519
     55 HC20        2.6679  -28.1832   -6.2697 hc        1 UNK    0.0807
     56 HC21        3.0383  -29.9089   -6.0613 hc        1 UNK    0.0807
     57 HC22        1.1715  -29.5113   -4.0127 hc        1 UNK    0.0594
     58 HC23        2.9265  -29.4442   -3.7725 hc        1 UNK    0.0594
     59 HC24        2.5275  -27.3426   -2.8864 hc        1 UNK    0.0454
     60 HC25        2.3623  -26.8148   -4.5742 hc        1 UNK    0.0454
     61 HC26        0.0587  -26.5339   -4.3944 hc        1 UNK    0.0515
     62 HC27        0.4003  -26.4255   -2.6550 hc        1 UNK    0.0515
     63 HC28        0.1688  -29.2352   -3.3342 h1        1 UNK    0.0409
     64 HC29       -0.8974  -28.2744   -2.2854 h1        1 UNK    0.0409
     65 HC30        0.5708  -21.0681   -8.8425 hc        1 UNK    0.0807
     66 HC31        0.0671  -22.4852   -9.7911 hc        1 UNK    0.0807
     67 HC32       -2.2689  -21.8353   -9.6835 hc        1 UNK    0.0594
     68 HC33       -1.9360  -20.5919   -8.4591 hc        1 UNK    0.0594
     69 HC34       -0.2889  -20.0603  -10.7835 hc        1 UNK    0.0454
     70 HC35       -1.5821  -19.0534  -10.0930 hc        1 UNK    0.0454
     71 HC36       -3.0245  -21.0612  -11.3812 hc        1 UNK    0.0515
     72 HC37       -2.6888  -19.4534  -12.0641 hc        1 UNK    0.0515
     73 HC38       -1.0847  -22.0225  -12.5014 h1        1 UNK    0.0409
     74 HC39       -2.0065  -21.1108  -13.7192 h1        1 UNK    0.0409
     75 HC1         0.5389  -25.6502  -11.7332 hc        1 UNK    0.0380
     76 HC40       -0.5690  -24.9116  -10.5522 hc        1 UNK    0.0380
     77 HC41        1.1557  -24.4713  -10.5508 hc        1 UNK    0.0380
@<TRIPOS>BOND
     1    1    2 1
     2    1   28 1
     3    2    3 1
     4    3    4 1
     5    3   15 1
     6    3   17 1
     7    4    5 1
     8    5    6 1
     9    6    7 2
    10    6    8 1
    11    8    9 1
    12    9   10 1
    13   10   11 1
    14   11   12 1
    15   12   13 1
    16   13   14 1
    17   15   16 1
    18   17   18 1
    19   18   19 1
    20   19   20 2
    21   19   21 1
    22   21   22 1
    23   22   23 1
    24   23   24 1
    25   24   25 1
    26   25   26 1
    27   26   27 1
    28   28   29 2
    29   28   30 1
    30   30   31 1
    31   31   32 1
    32   32   33 1
    33   33   34 1
    34   34   35 1
    35   35   36 1
    36   37    2 1
    37   38    2 1
    38   39    4 1
    39   40    4 1
    40   41    8 1
    41   42    8 1
    42   43    9 1
    43   44    9 1
    44   45   10 1
    45   46   10 1
    46   47   11 1
    47   48   11 1
    48   49   12 1
    49   50   12 1
    50   51   15 1
    51   52   15 1
    52   53   17 1
    53   54   17 1
    54   55   21 1
    55   56   21 1
    56   57   22 1
    57   58   22 1
    58   59   23 1
    59   60   23 1
    60   61   24 1
    61   62   24 1
    62   63   25 1
    63   64   25 1
    64   65   30 1
    65   66   30 1
    66   67   31 1
    67   68   31 1
    68   69   32 1
    69   70   32 1
    70   71   33 1
    71   72   33 1
    72   73   34 1
    73   74   34 1
    74   75   16 1
    75   76   16 1
    76   77   16 1
@<TRIPOS>SUBSTRUCTURE
     1 UNK     1 RESIDUE           4 A     UNK     0 ROOT
