@<TRIPOS>MOLECULE
Subst.pdb
77 76 1 0 0
SMALL
AMBER ff14SB


@<TRIPOS>ATOM
      1 O1          7.1000  -17.2910   -6.9780 os        1 UNK   -0.4392
      2 C12         5.8530  -18.0060   -7.0120 c3        1 UNK    0.1364
      3 C10         5.8270  -19.2120   -7.9960 c3        1 UNK   -0.0890
      4 C14         6.4630  -18.7570   -9.4060 c3        1 UNK    0.1364
      5 O3          7.8210  -19.4520   -9.5250 os        1 UNK   -0.4392
      6 C18         8.8890  -18.9230  -10.4010 c         1 UNK    0.6298
      7 O6          9.7060  -19.6750  -10.9430 o         1 UNK   -0.5247
      8 C21         8.9490  -17.3590  -10.6460 c3        1 UNK   -0.1401
      9 C24         9.8630  -16.8420  -11.8560 c3        1 UNK   -0.0757
     10 C27        11.1490  -16.0770  -11.2830 c3        1 UNK   -0.0824
     11 C30        11.1810  -15.9620   -9.7020 c3        1 UNK   -0.1177
     12 C33        12.3880  -15.0600   -9.2300 c3        1 UNK    0.1204
     13 O9         12.6260  -15.1890   -7.8020 oh        1 UNK   -0.6048
     14 H77        12.8340  -16.1430   -7.5700 ho        1 UNK    0.3963
     15 C11         6.7740  -20.2910   -7.4270 c3        1 UNK   -0.0634
     16 C15         5.9840  -21.5610   -7.0380 c3        1 UNK   -0.0931
     17 C13         4.2620  -19.7290   -7.9460 c3        1 UNK    0.1364
     18 O2          3.2280  -19.1850   -7.0250 os        1 UNK   -0.4392
     19 C17         2.1690  -20.2170   -6.8940 c         1 UNK    0.6298
     20 O5          1.0270  -19.9450   -7.2840 o         1 UNK   -0.5247
     21 C20         2.4060  -21.6190   -6.2430 c3        1 UNK   -0.1401
     22 C23         2.8820  -21.4730   -4.7170 c3        1 UNK   -0.0757
     23 C26         2.6410  -22.7860   -3.8510 c3        1 UNK   -0.0824
     24 C29         2.6590  -22.4720   -2.2980 c3        1 UNK   -0.1177
     25 C32         3.8490  -23.1990   -1.5710 c3        1 UNK    0.1204
     26 O8          5.0720  -22.4220   -1.6760 oh        1 UNK   -0.6048
     27 H76         5.7690  -22.9380   -2.1780 ho        1 UNK    0.3963
     28 C16         6.8400  -15.9170   -7.0900 c         1 UNK    0.6298
     29 O4          5.9740  -15.4040   -6.3020 o         1 UNK   -0.5247
     30 C19         7.4510  -15.0330   -8.1400 c3        1 UNK   -0.1401
     31 C22         7.9190  -13.6850   -7.5150 c3        1 UNK   -0.0757
     32 C25         9.4430  -13.4650   -7.7190 c3        1 UNK   -0.0824
     33 C28         9.8320  -12.0080   -7.3450 c3        1 UNK   -0.1177
     34 C31        11.2610  -11.6890   -7.8550 c3        1 UNK    0.1204
     35 O7         11.2060  -11.2020   -9.2050 oh        1 UNK   -0.6048
     36 H75        10.8090  -10.2910   -9.2180 ho        1 UNK    0.3963
     37 HC2         5.6480  -18.3806   -6.0091 h1        1 UNK    0.0709
     38 HC3         5.0613  -17.3113   -7.2924 h1        1 UNK    0.0709
     39 HC4         6.5926  -17.6749   -9.4270 h1        1 UNK    0.0709
     40 HC5         5.8136  -19.0689  -10.2239 h1        1 UNK    0.0709
     41 HC6         7.9312  -17.0175  -10.8349 hc        1 UNK    0.0785
     42 HC7         9.3007  -16.8856   -9.7293 hc        1 UNK    0.0785
     43 HC8         9.2849  -16.1594  -12.4789 hc        1 UNK    0.0567
     44 HC9        10.1856  -17.6934  -12.4552 hc        1 UNK    0.0567
     45 HC10       11.1624  -15.0700  -11.6999 hc        1 UNK    0.0494
     46 HC11       12.0445  -16.6036  -11.6131 hc        1 UNK    0.0494
     47 HC12       10.2471  -15.5182   -9.3571 hc        1 UNK    0.0470
     48 HC13       11.2864  -16.9577   -9.2712 hc        1 UNK    0.0470
     49 HC14       12.1614  -14.0185   -9.4580 h1        1 UNK    0.0530
     50 HC15       13.2874  -15.3561   -9.7699 h1        1 UNK    0.0530
     51 HC16        7.5168  -20.5490   -8.1818 hc        1 UNK    0.0447
     52 HC17        7.2792  -19.8973   -6.5450 hc        1 UNK    0.0447
     53 HC18        4.3120  -20.7969   -7.7336 h1        1 UNK    0.0709
     54 HC19        3.8660  -19.6284   -8.9565 h1        1 UNK    0.0709
     55 HC20        1.4764  -22.1874   -6.2732 hc        1 UNK    0.0785
     56 HC21        3.1708  -22.1520   -6.8078 hc        1 UNK    0.0785
     57 HC22        2.3298  -20.6518   -4.2601 hc        1 UNK    0.0567
     58 HC23        3.9451  -21.2326   -4.7021 hc        1 UNK    0.0567
     59 HC24        3.4274  -23.5067   -4.0752 hc        1 UNK    0.0494
     60 HC25        1.6757  -23.2168   -4.1169 hc        1 UNK    0.0494
     61 HC26        2.7632  -21.3963   -2.1565 hc        1 UNK    0.0470
     62 HC27        1.7178  -22.8002   -1.8569 hc        1 UNK    0.0470
     63 HC28        3.5981  -23.3290   -0.5183 h1        1 UNK    0.0530
     64 HC29        4.0045  -24.1769   -2.0266 h1        1 UNK    0.0530
     65 HC30        8.3089  -15.5406   -8.5809 hc        1 UNK    0.0785
     66 HC31        6.7127  -14.8329   -8.9165 hc        1 UNK    0.0785
     67 HC32        7.7021  -13.6952   -6.4469 hc        1 UNK    0.0567
     68 HC33        7.3736  -12.8654   -7.9829 hc        1 UNK    0.0567
     69 HC34        9.9945  -14.1585   -7.0842 hc        1 UNK    0.0494
     70 HC35        9.6979  -13.6501   -8.7625 hc        1 UNK    0.0494
     71 HC36        9.1237  -11.3174   -7.8027 hc        1 UNK    0.0470
     72 HC37        9.8008  -11.8924   -6.2616 hc        1 UNK    0.0470
     73 HC38       11.8657  -12.5953   -7.8232 h1        1 UNK    0.0530
     74 HC39       11.7123  -10.9307   -7.2152 h1        1 UNK    0.0530
     75 HC1         6.6585  -22.2818   -6.5758 hc        1 UNK    0.0407
     76 HC40        5.5400  -22.0002   -7.9313 hc        1 UNK    0.0407
     77 HC41        5.1959  -21.2969   -6.3328 hc        1 UNK    0.0407
@<TRIPOS>BOND
     1    1    2 1
     2    1   28 1
     3    2    3 1
     4    3    4 1
     5    3   15 1
     6    3   17 1
     7    4    5 1
     8    5    6 1
     9    6    7 2
    10    6    8 1
    11    8    9 1
    12    9   10 1
    13   10   11 1
    14   11   12 1
    15   12   13 1
    16   13   14 1
    17   15   16 1
    18   17   18 1
    19   18   19 1
    20   19   20 2
    21   19   21 1
    22   21   22 1
    23   22   23 1
    24   23   24 1
    25   24   25 1
    26   25   26 1
    27   26   27 1
    28   28   29 2
    29   28   30 1
    30   30   31 1
    31   31   32 1
    32   32   33 1
    33   33   34 1
    34   34   35 1
    35   35   36 1
    36   37    2 1
    37   38    2 1
    38   39    4 1
    39   40    4 1
    40   41    8 1
    41   42    8 1
    42   43    9 1
    43   44    9 1
    44   45   10 1
    45   46   10 1
    46   47   11 1
    47   48   11 1
    48   49   12 1
    49   50   12 1
    50   51   15 1
    51   52   15 1
    52   53   17 1
    53   54   17 1
    54   55   21 1
    55   56   21 1
    56   57   22 1
    57   58   22 1
    58   59   23 1
    59   60   23 1
    60   61   24 1
    61   62   24 1
    62   63   25 1
    63   64   25 1
    64   65   30 1
    65   66   30 1
    66   67   31 1
    67   68   31 1
    68   69   32 1
    69   70   32 1
    70   71   33 1
    71   72   33 1
    72   73   34 1
    73   74   34 1
    74   75   16 1
    75   76   16 1
    76   77   16 1
@<TRIPOS>SUBSTRUCTURE
     1 UNK     1 RESIDUE           4 A     UNK     0 ROOT
