@<TRIPOS>MOLECULE
PETase-origonal complex.pdb
77 76 1 0 0
SMALL
AMBER ff14SB


@<TRIPOS>ATOM
      1 O1         -0.3790   30.1290  -29.3460 os        1 UNK   -0.4406
      2 C12        -0.2290   30.7140  -28.0410 c3        1 UNK    0.1361
      3 C10        -0.5420   29.7480  -26.8610 c3        1 UNK   -0.0730
      4 C14         0.6890   29.7700  -25.8190 c3        1 UNK    0.1361
      5 O3          1.7080   28.7430  -26.3140 os        1 UNK   -0.4406
      6 C18         3.0580   28.6420  -25.7190 c         1 UNK    0.6348
      7 O6          3.3630   27.7040  -24.9740 o         1 UNK   -0.5313
      8 C21         4.1200   29.7620  -26.0780 c3        1 UNK   -0.1437
      9 C24         5.2210   30.1090  -24.9670 c3        1 UNK   -0.0797
     10 C27         6.6150   29.4110  -25.3410 c3        1 UNK   -0.0771
     11 C30         6.5760   28.5690  -26.6840 c3        1 UNK   -0.1191
     12 C33         6.7760   27.0310  -26.3860 c3        1 UNK    0.1267
     13 O9          6.1180   26.6360  -25.1510 oh        1 UNK   -0.6131
     14 H77         5.1290   26.7910  -25.2190 ho        1 UNK    0.4077
     15 C11        -1.7550   30.3290  -26.1010 c3        1 UNK   -0.0714
     16 C15        -2.7070   31.0630  -27.0730 c3        1 UNK   -0.0991
     17 C13        -0.9460   28.3320  -27.6040 c3        1 UNK    0.1361
     18 O2         -1.9110   27.3430  -27.0540 os        1 UNK   -0.4406
     19 C17        -2.8140   26.9460  -28.1630 c         1 UNK    0.6348
     20 O5         -3.0550   25.7440  -28.3280 o         1 UNK   -0.5313
     21 C20        -3.4430   27.9630  -29.1700 c3        1 UNK   -0.1437
     22 C23        -4.4410   27.2240  -30.1880 c3        1 UNK   -0.0797
     23 C26        -4.5120   27.9180  -31.6180 c3        1 UNK   -0.0771
     24 C29        -5.4610   27.1190  -32.6070 c3        1 UNK   -0.1191
     25 C32        -6.7590   27.9360  -32.9530 c3        1 UNK    0.1267
     26 O8         -7.5460   28.1880  -31.7580 oh        1 UNK   -0.6131
     27 H76        -7.5770   27.3680  -31.1830 ho        1 UNK    0.4077
     28 C16        -0.3890   31.1520  -30.3050 c         1 UNK    0.6348
     29 O4          0.7150   31.4480  -30.8790 o         1 UNK   -0.5313
     30 C19        -1.5990   31.9800  -30.6320 c3        1 UNK   -0.1437
     31 C22        -2.8200   31.0640  -30.9430 c3        1 UNK   -0.0797
     32 C25        -3.9600   31.8570  -31.6380 c3        1 UNK   -0.0771
     33 C28        -5.0560   32.2420  -30.6060 c3        1 UNK   -0.1191
     34 C31        -6.4190   31.6290  -31.0190 c3        1 UNK    0.1267
     35 O7         -6.6660   30.4270  -30.2730 oh        1 UNK   -0.6131
     36 H75        -6.8500   30.6530  -29.3230 ho        1 UNK    0.4077
     37 HC2         0.8009   31.0554  -27.9374 h1        1 UNK    0.0690
     38 HC3        -0.8906   31.5773  -27.9687 h1        1 UNK    0.0690
     39 HC4         0.3406   29.5016  -24.8217 h1        1 UNK    0.0690
     40 HC5         1.1411   30.7616  -25.7997 h1        1 UNK    0.0690
     41 HC6         3.5703   30.6785  -26.2924 hc        1 UNK    0.0809
     42 HC7         4.6395   29.4578  -26.9867 hc        1 UNK    0.0809
     43 HC8         5.3591   31.1892  -24.9207 hc        1 UNK    0.0607
     44 HC9         4.8830   29.7454  -23.9966 hc        1 UNK    0.0607
     45 HC10        7.3703   30.1897  -25.4468 hc        1 UNK    0.0467
     46 HC11        6.9057   28.7513  -24.5235 hc        1 UNK    0.0467
     47 HC12        7.3728   28.9118  -27.3441 hc        1 UNK    0.0484
     48 HC13        5.6139   28.7182  -27.1741 hc        1 UNK    0.0484
     49 HC14        7.8426   26.8229  -26.3008 h1        1 UNK    0.0467
     50 HC15        6.3638   26.4508  -27.2116 h1        1 UNK    0.0467
     51 HC16       -2.2958   29.5166  -25.6157 hc        1 UNK    0.0532
     52 HC17       -1.4032   31.0299  -25.3439 hc        1 UNK    0.0532
     53 HC18       -0.0094   27.7893  -27.7315 h1        1 UNK    0.0690
     54 HC19       -1.2971   28.5909  -28.6029 h1        1 UNK    0.0690
     55 HC20       -2.6452   28.4416  -29.7379 hc        1 UNK    0.0809
     56 HC21       -3.9940   28.7226  -28.6155 hc        1 UNK    0.0809
     57 HC22       -4.1021   26.1963  -30.3192 hc        1 UNK    0.0607
     58 HC23       -5.4405   27.2117  -29.7534 hc        1 UNK    0.0607
     59 HC24       -3.5091   27.9557  -32.0432 hc        1 UNK    0.0467
     60 HC25       -4.8897   28.9340  -31.5035 hc        1 UNK    0.0467
     61 HC26       -4.9172   26.9127  -33.5289 hc        1 UNK    0.0484
     62 HC27       -5.7468   26.1752  -32.1426 hc        1 UNK    0.0484
     63 HC28       -7.3599   27.3675  -33.6628 h1        1 UNK    0.0467
     64 HC29       -6.4753   28.8872  -33.4034 h1        1 UNK    0.0467
     65 HC30       -1.3847   32.5996  -31.5028 hc        1 UNK    0.0809
     66 HC31       -1.8367   32.6213  -29.7833 hc        1 UNK    0.0809
     67 HC32       -2.4987   30.2557  -31.5999 hc        1 UNK    0.0607
     68 HC33       -3.1955   30.6401  -30.0116 hc        1 UNK    0.0607
     69 HC34       -3.5487   32.7641  -32.0808 hc        1 UNK    0.0467
     70 HC35       -4.4022   31.2415  -32.4214 hc        1 UNK    0.0467
     71 HC36       -4.7741   31.8636  -29.6234 hc        1 UNK    0.0484
     72 HC37       -5.1463   33.3274  -30.5629 hc        1 UNK    0.0484
     73 HC38       -6.4013   31.3952  -32.0835 h1        1 UNK    0.0467
     74 HC39       -7.2139   32.3478  -30.8199 h1        1 UNK    0.0467
     75 HC1        -3.6891   31.1666  -26.6116 hc        1 UNK    0.0384
     76 HC40       -2.3054   32.0511  -27.2977 hc        1 UNK    0.0384
     77 HC41       -2.7976   30.4893  -27.9954 hc        1 UNK    0.0384
@<TRIPOS>BOND
     1    1    2 1
     2    1   28 1
     3    2    3 1
     4    3    4 1
     5    3   15 1
     6    3   17 1
     7    4    5 1
     8    5    6 1
     9    6    7 2
    10    6    8 1
    11    8    9 1
    12    9   10 1
    13   10   11 1
    14   11   12 1
    15   12   13 1
    16   13   14 1
    17   15   16 1
    18   17   18 1
    19   18   19 1
    20   19   20 2
    21   19   21 1
    22   21   22 1
    23   22   23 1
    24   23   24 1
    25   24   25 1
    26   25   26 1
    27   26   27 1
    28   28   29 2
    29   28   30 1
    30   30   31 1
    31   31   32 1
    32   32   33 1
    33   33   34 1
    34   34   35 1
    35   35   36 1
    36   37    2 1
    37   38    2 1
    38   39    4 1
    39   40    4 1
    40   41    8 1
    41   42    8 1
    42   43    9 1
    43   44    9 1
    44   45   10 1
    45   46   10 1
    46   47   11 1
    47   48   11 1
    48   49   12 1
    49   50   12 1
    50   51   15 1
    51   52   15 1
    52   53   17 1
    53   54   17 1
    54   55   21 1
    55   56   21 1
    56   57   22 1
    57   58   22 1
    58   59   23 1
    59   60   23 1
    60   61   24 1
    61   62   24 1
    62   63   25 1
    63   64   25 1
    64   65   30 1
    65   66   30 1
    66   67   31 1
    67   68   31 1
    68   69   32 1
    69   70   32 1
    70   71   33 1
    71   72   33 1
    72   73   34 1
    73   74   34 1
    74   75   16 1
    75   76   16 1
    76   77   16 1
@<TRIPOS>SUBSTRUCTURE
     1 UNK     1 RESIDUE           4 A     UNK     0 ROOT
